7

O 3.211766493698782 0.39750036887992 1.3816690208929254
O -0.7178281960535209 -0.1633396634317478 -0.26140788580304464
H 0.97371056 0.14719265 0.79000607
H -0.7952793536051479 -1.68986513543984 -1.3985899091479148
H -1.7865422823606296 0.4403701936335016 -0.5387716555406584
H 3.849838036687516 0.9311702081840921 3.4871676533275577
H 4.651610034205154 0.36906083554281954 0.48284955458841805
